LAMMPS (29 Aug 2024 - Update 2)
variable T equal 373.15       # Target temperature in K
variable dt equal 0.5      # Timestep in fs
variable steps_per_restart equal 1000000
variable total_steps equal 5000000

units real
atom_style charge
boundary p p f  # periodic in x and y, fixed in z

# Read graphene structure (carbon only)
read_data graphene_mini.data
Reading data file ...
  orthogonal box = (0.0672 0.06 -50) to (44.28 42.6 50)
  reading atoms ...
  1440 atoms

# ReaxFF potential
pair_style reaxff NULL safezone 3.0 mincap 150
pair_coeff * * ffield.reax.FC.txt C F
Reading potential file ffield.reax.FC.txt with DATE: 2013-06-28

# Define groups
group graphene type 1
1440 atoms in group graphene

# Charge equilibration
fix qeq all qeq/reaxff 100 0.0 10.0 1.0e-6 reaxff

# Prevent atoms from flying out of z bounds
fix wall all wall/reflect zlo EDGE zhi EDGE

# Temperature monitoring
compute tgraphene graphene temp

# ----------------------------
# Relaxation Phase
# ----------------------------
fix boxrelax all box/relax x 0.0 y 0.0 vmax 0.001
minimize 1.0e-6 1.0e-9 1000 10000

CITE-CITE-CITE-CITE-CITE-CITE-CITE-CITE-CITE-CITE-CITE-CITE-CITE

Your simulation uses code contributions which should be cited:

- pair reaxff command: doi:10.1016/j.parco.2011.08.005

@Article{Aktulga12,
 author = {H. M. Aktulga and J. C. Fogarty and S. A. Pandit and A. Y. Grama},
 title = {Parallel Reactive Molecular Dynamics: {N}umerical Methods and Algorithmic Techniques},
 journal = {Parallel Computing},
 year =    2012,
 volume =  38,
 number =  {4--5},
 pages =   {245--259}
}

- fix qeq/reaxff command: doi:10.1016/j.parco.2011.08.005

@Article{Aktulga12,
 author = {H. M. Aktulga and J. C. Fogarty and S. A. Pandit and A. Y. Grama},
 title = {Parallel Reactive Molecular Dynamics: {N}umerical Methods and Algorithmic Techniques},
 journal = {Parallel Computing},
 year =    2012,
 volume =  38,
 pages =   {245--259}
}

CITE-CITE-CITE-CITE-CITE-CITE-CITE-CITE-CITE-CITE-CITE-CITE-CITE

 (src/min.cpp:219)
Step          Temp          E_pair         E_mol          TotEng         Press          Volume
0   0             -254657.85      0             -254657.85      97058.358      188081.25
Loop time of 1.66965 on 20 procs for 13 steps with 1440 atoms

Minimization stats:
  Stopping criterion = energy tolerance
  Energy initial, next-to-last, final =
  Force two-norm initial, final = 566410.4 660.05649
  Force max component initial, final = 400581.5 499.06258
  Final line search alpha, max atom move = 5.4496116e-07 0.00027196972
  Iterations, force evaluations = 13 16

unfix boxrelax

# Add F atoms
region above_graphene block 1 43 1 41 8 49 units box
region below_graphene block 1 43 1 41 -49 -8 units box
create_atoms 2 random 1440 12345 above_graphene overlap 1.5
Created 1440 atoms
create_atoms 2 random 1440 67890 below_graphene overlap 1.5
Created 1440 atoms
group gas type 2
2880 atoms in group gas

compute tgas gas temp

velocity all create 373.15 4928459 mom yes rot yes dist gaussian

# Soft start: Langevin thermostat + NVE
fix pre_relax all nve
fix temp_relax all langevin 373.15 373.15 100.0 123456
thermo 50
timestep 0.5
run 3000
Step          Temp          E_pair         E_mol          TotEng         Press
13   373.15        -248215.24      0             -243411.26      1640.4372
Averages over the last 31 of 62 rows, steps 1550 to 3013:
Temp E_pair E_mol TotEng Press
379.266 -275543 0 -270660 5336.19
Loop time of 244.676 on 20 procs for 3000 steps with 4320 atoms

unfix pre_relax
unfix temp_relax

# ----------------------------
# Main Simulation Phase
# ----------------------------
fix nvt_sim all nvt temp 373.15 373.15 50

# ReaxFF bond info
fix reax_bonds all reaxff/bonds 100 bonds.reax

# Restart file every 1 million timesteps
restart 1000000 restart.*.bin

# Dump less frequently to reduce file size
dump mydmp all custom 10000 dump.lammpstrj id type x y z q
thermo 1000

run 5000000
Step          Temp          E_pair         E_mol          TotEng         Press
3013   383.2803      -276120.81      0             -271186.41      4689.5739
Averages over the last 2501 of 5002 rows, steps 2504000 to 5003013:
Temp E_pair E_mol TotEng Press
373.277 -299175 0 -294370 -482.899
Loop time of 534482 on 20 procs for 5000000 steps with 4320 atoms
