LAMMPS (29 Aug 2024 - Update 1)
Loaded 1 plugins from C:\Users\ahmed\AppData\Local\LAMMPS 64-bit 29Aug2024\plugins
variable T equal 1673.15  # Target temperature

units real
atom_style charge
boundary p p f  # periodic in x and y, fixed in z

# Read graphene structure (carbon only)
read_data graphene_mini.data
Reading data file ...
  orthogonal box = (0.0672 0.06 -50) to (44.28 42.6 50)
  reading atoms ...
  1440 atoms

# ReaxFF potential
pair_style reaxff NULL safezone 3.0 mincap 150
pair_coeff * * ffield.reax.FC.txt C F
Reading potential file ffield.reax.FC.txt with DATE: 2013-06-28

# Define groups
group graphene type 1
1440 atoms in group graphene

# Charge equilibration
fix qeq all qeq/reaxff 100 0.0 10.0 1.0e-6 reaxff

# Prevent atoms from flying out of z bounds
fix wall all wall/reflect zlo EDGE zhi EDGE

# Temperature monitoring
compute tgraphene graphene temp

# ----------------------------
# Relaxation Phase
# ----------------------------
fix boxrelax all box/relax x 0.0 y 0.0 vmax 0.001
minimize 1.0e-6 1.0e-9 1000 10000

CITE-CITE-CITE-CITE-CITE-CITE-CITE-CITE-CITE-CITE-CITE-CITE-CITE

Your simulation uses code contributions which should be cited:

- Type Label Framework: https://doi.org/10.1021/acs.jpcb.3c08419

@Article{Gissinger24,
 author = {Jacob R. Gissinger, Ilia Nikiforov, Yaser Afshar, Brendon Waters, Moon-ki Choi, Daniel S. Karls, Alexander Stukowski, Wonpil Im, Hendrik Heinz, Axel Kohlmeyer, and Ellad B. Tadmor},
 title = {Type Label Framework for Bonded Force Fields in LAMMPS},
 journal = {J. Phys. Chem. B},
 year =    2024,
 volume =  128,
 number =  13,
 pages =   {3282â€“-3297}
}

- pair reaxff command: doi:10.1016/j.parco.2011.08.005

@Article{Aktulga12,
 author = {H. M. Aktulga and J. C. Fogarty and S. A. Pandit and A. Y. Grama},
 title = {Parallel Reactive Molecular Dynamics: {N}umerical Methods and Algorithmic Techniques},
 journal = {Parallel Computing},
 year =    2012,
 volume =  38,
 number =  {4--5},
 pages =   {245--259}
}

- fix qeq/reaxff command: doi:10.1016/j.parco.2011.08.005

@Article{Aktulga12,
 author = {H. M. Aktulga and J. C. Fogarty and S. A. Pandit and A. Y. Grama},
 title = {Parallel Reactive Molecular Dynamics: {N}umerical Methods and Algorithmic Techniques},
 journal = {Parallel Computing},
 year =    2012,
 volume =  38,
 pages =   {245--259}
}

CITE-CITE-CITE-CITE-CITE-CITE-CITE-CITE-CITE-CITE-CITE-CITE-CITE

 (src/min.cpp:219)
Step          Temp          E_pair         E_mol          TotEng         Press          Volume
0   0             -254657.85      0             -254657.85      97058.358      188081.25
Loop time of 1.93045 on 1 procs for 13 steps with 1440 atoms

Minimization stats:
  Stopping criterion = energy tolerance
  Energy initial, next-to-last, final =
  Force two-norm initial, final = 566410.4 660.05649
  Force max component initial, final = 400581.5 499.06258
  Final line search alpha, max atom move = 5.4496116e-07 0.00027196972
  Iterations, force evaluations = 13 16

unfix boxrelax

velocity all create 1673.15 4928459 mom yes rot yes dist gaussian

# Soft start: Langevin thermostat + NVE
fix pre_relax all nve
fix temp_relax all langevin 1673.15 1673.15 100.0 123456
thermo 50
timestep 0.5
run 3000
Step          Temp          E_pair         E_mol          TotEng         Press
13   1673.15       -261891.62      0             -254714.84      1330.2956
Averages over the last 31 of 62 rows, steps 1550 to 3013:
Temp E_pair E_mol TotEng Press
1676.87 -254078 0 -246885 3235.01
Loop time of 780.222 on 1 procs for 3000 steps with 1440 atoms

unfix pre_relax
unfix temp_relax

# Adding F atoms
region above_graphene block 1 43 1 41 8 49 units box
region below_graphene block 1 43 1 41 -49 -8 units box
create_atoms 2 random 1440 12345 above_graphene overlap 1.5
Created 1440 atoms
create_atoms 2 random 1440 67890 below_graphene overlap 1.5
Created 1440 atoms
group gas type 2
2880 atoms in group gas
velocity gas create 1673.15 4928460 mom yes rot yes dist gaussian

compute tgas gas temp

# ----------------------------
# Main Simulation Phase
# ----------------------------

# Switch to full NVT
fix nvt_sim all nvt temp 1673.15 1673.15 50

# Bond analysis
fix reax_bonds all reaxff/bonds 50 bonds.reax

# Output settings
dump mydmp all custom 500 dump.lammpstrj id type x y z q
thermo 50

run 50000
Step          Temp          E_pair         E_mol          TotEng         Press
3013   1653.9875     -240386.71      0             -219093.08      8180.074
Averages over the last 501 of 1002 rows, steps 28050 to 53013:
Temp E_pair E_mol TotEng Press
1672.08 -282847 0 -261320 -4828.87
Loop time of 34280.4 on 1 procs for 50000 steps with 4320 atoms
