LAMMPS (29 Aug 2024 - Update 2)
# 1) Initialization

variable T equal 700  # Target temperature

units real
atom_style charge
boundary p p f  # periodic in x and y, fixed in z

# Read graphene structure
read_data graphene.data
Reading data file ...
  orthogonal box = (0.1502 0.13 -42) to (93.48 93.72 42)
  reading atoms ...
  6688 atoms

# Define group for graphene atoms (type 1)
group graphene type 1
6688 atoms in group graphene

# Use ReaxFF
pair_style reaxff NULL safezone 3.0 mincap 150
pair_coeff * * ffield.reax.FC.txt C F
Reading potential file ffield.reax.FC.txt with DATE: 2013-06-28

# Charge equilibration
fix qeq all qeq/reaxff 10 0.0 10.0 1.0e-6 reaxff maxiter 400

# Apply box relaxation (x/y only)
fix boxrelax all box/relax x 0.0 y 0.0 vmax 0.001
minimize 1.0e-6 1.0e-9 1000 10000

CITE-CITE-CITE-CITE-CITE-CITE-CITE-CITE-CITE-CITE-CITE-CITE-CITE

Your simulation uses code contributions which should be cited:

- pair reaxff command: doi:10.1016/j.parco.2011.08.005

@Article{Aktulga12,
 author = {H. M. Aktulga and J. C. Fogarty and S. A. Pandit and A. Y. Grama},
 title = {Parallel Reactive Molecular Dynamics: {N}umerical Methods and Algorithmic Techniques},
 journal = {Parallel Computing},
 year =    2012,
 volume =  38,
 number =  {4--5},
 pages =   {245--259}
}

- fix qeq/reaxff command: doi:10.1016/j.parco.2011.08.005

@Article{Aktulga12,
 author = {H. M. Aktulga and J. C. Fogarty and S. A. Pandit and A. Y. Grama},
 title = {Parallel Reactive Molecular Dynamics: {N}umerical Methods and Algorithmic Techniques},
 journal = {Parallel Computing},
 year =    2012,
 volume =  38,
 pages =   {245--259}
}

CITE-CITE-CITE-CITE-CITE-CITE-CITE-CITE-CITE-CITE-CITE-CITE-CITE

 (src/min.cpp:219)
Step          Temp          E_pair         E_mol          TotEng         Press          Volume
0   0             -1182617.7      0             -1182617.7      115541.11      733717.82
Loop time of 3.90274 on 48 procs for 13 steps with 6688 atoms

Minimization stats:
  Stopping criterion = energy tolerance
  Energy initial, next-to-last, final =
  Force two-norm initial, final = 2630380.6 2920.2487
  Force max component initial, final = 1860015.6 2108.622
  Final line search alpha, max atom move = 1.2398753e-07 0.00026144283
  Iterations, force evaluations = 13 16

unfix boxrelax

# Initial velocity assignment
velocity all create 700 4928459 mom yes rot yes dist gaussian

# Z-wall constraint
fix wall all wall/reflect zlo EDGE zhi EDGE

# Define computes for temperature
compute tgraphene graphene temp

# --- Phase 1: NVT Equilibration of Pristine Graphene ---
fix nvt_eq all nvt temp 700 700 50
thermo 50
run 10000
Step          Temp          E_pair         E_mol          TotEng         Press
13   700           -1216351.4      0             -1202398.5      399.15106
Averages over the last 101 of 202 rows, steps 5050 to 10013:
Temp E_pair E_mol TotEng Press
700.574 -1.20095e+06 0 -1.18699e+06 884.037
Loop time of 2503.64 on 48 procs for 10000 steps with 6688 atoms

unfix nvt_eq

# --- Phase 2: Insert Fluorine ---

# Define group for fluorine (type 2)
group gas type 2
0 atoms in group gas

# Define insertion regions
region above_graphene block 3 93 3 93 15 25 units box
region below_graphene block 3 93 3 93 -25 -15 units box

# Insert F atoms (type 2)
create_atoms 2 random 200 12345 above_graphene overlap 1.5
Created 200 atoms
create_atoms 2 random 200 34134 below_graphene overlap 1.5
Created 200 atoms

# Output
dump mydmp all custom 500 dump.lammpstrj id type x y z q
thermo 50

# --- Phase 3: Production run with fluorine ---
fix nvt_main all nvt temp 700 700 50
fix reax_bonds all reaxff/bonds 50 bonds.reax

timestep 0.5
run 50000
Step          Temp          E_pair         E_mol          TotEng         Press
10013   660.45122     -1200899.7      0             -1186947.7      1898.2651
Averages over the last 501 of 1002 rows, steps 35050 to 60013:
Temp E_pair E_mol TotEng Press
699.685 -1.21228e+06 0 -1.1975e+06 724.697
Loop time of 12798 on 48 procs for 50000 steps with 7088 atoms
