LAMMPS (29 Aug 2024 - Update 1)
Loaded 1 plugins from C:\Users\ahmed\AppData\Local\LAMMPS 64-bit 29Aug2024\plugins
variable T equal 700  # Target temperature

units real
atom_style charge
boundary p p f  # periodic in x and y, fixed in z

# Read graphene structure (carbon only)
read_data graphene.data
Reading data file ...
  orthogonal box = (0.1502 0.13 -42) to (93.48 93.72 42)
  reading atoms ...
  6688 atoms

# ReaxFF potential
pair_style reaxff NULL safezone 3.0 mincap 150
pair_coeff * * ffield.reax.FC.txt C F
Reading potential file ffield.reax.FC.txt with DATE: 2013-06-28

# Define groups
group graphene type 1
6688 atoms in group graphene

# Charge equilibration
fix qeq all qeq/reaxff 100 0.0 10.0 1.0e-6 reaxff

# Prevent atoms from flying out of z bounds
fix wall all wall/reflect zlo EDGE zhi EDGE

# Temperature monitoring
compute tgraphene graphene temp

# ----------------------------
# Relaxation Phase
# ----------------------------
fix boxrelax all box/relax x 0.0 y 0.0 vmax 0.001
minimize 1.0e-6 1.0e-9 1000 10000

CITE-CITE-CITE-CITE-CITE-CITE-CITE-CITE-CITE-CITE-CITE-CITE-CITE

Your simulation uses code contributions which should be cited:

- Type Label Framework: https://doi.org/10.1021/acs.jpcb.3c08419

@Article{Gissinger24,
 author = {Jacob R. Gissinger, Ilia Nikiforov, Yaser Afshar, Brendon Waters, Moon-ki Choi, Daniel S. Karls, Alexander Stukowski, Wonpil Im, Hendrik Heinz, Axel Kohlmeyer, and Ellad B. Tadmor},
 title = {Type Label Framework for Bonded Force Fields in LAMMPS},
 journal = {J. Phys. Chem. B},
 year =    2024,
 volume =  128,
 number =  13,
 pages =   {3282â€“-3297}
}

- pair reaxff command: doi:10.1016/j.parco.2011.08.005

@Article{Aktulga12,
 author = {H. M. Aktulga and J. C. Fogarty and S. A. Pandit and A. Y. Grama},
 title = {Parallel Reactive Molecular Dynamics: {N}umerical Methods and Algorithmic Techniques},
 journal = {Parallel Computing},
 year =    2012,
 volume =  38,
 number =  {4--5},
 pages =   {245--259}
}

- fix qeq/reaxff command: doi:10.1016/j.parco.2011.08.005

@Article{Aktulga12,
 author = {H. M. Aktulga and J. C. Fogarty and S. A. Pandit and A. Y. Grama},
 title = {Parallel Reactive Molecular Dynamics: {N}umerical Methods and Algorithmic Techniques},
 journal = {Parallel Computing},
 year =    2012,
 volume =  38,
 pages =   {245--259}
}

CITE-CITE-CITE-CITE-CITE-CITE-CITE-CITE-CITE-CITE-CITE-CITE-CITE

 (src/min.cpp:219)
Step          Temp          E_pair         E_mol          TotEng         Press          Volume
0   0             -1182617.7      0             -1182617.7      115541.11      733717.82
Loop time of 8.07421 on 1 procs for 13 steps with 6688 atoms

Minimization stats:
  Stopping criterion = energy tolerance
  Energy initial, next-to-last, final =
  Force two-norm initial, final = 2630380.6 2920.2487
  Force max component initial, final = 1860015.6 2108.622
  Final line search alpha, max atom move = 1.2398753e-07 0.00026144283
  Iterations, force evaluations = 13 16

unfix boxrelax

velocity all create 700 4928459 mom yes rot yes dist gaussian

# Soft start: Langevin thermostat + NVE
fix pre_relax all nve
fix temp_relax all langevin 700 700 100.0 123456
thermo 50
timestep 0.5
run 3000
Step          Temp          E_pair         E_mol          TotEng         Press
13   700           -1216351.4      0             -1202398.5      399.15106
Averages over the last 31 of 62 rows, steps 1550 to 3013:
Temp E_pair E_mol TotEng Press
700.312 -1.20032e+06 0 -1.18636e+06 4758.82
Loop time of 1818.04 on 1 procs for 3000 steps with 6688 atoms

unfix pre_relax
unfix temp_relax

# Adding F atoms
region above_graphene block 3 93 3 93 18 25 units box
region below_graphene block 3 93 3 93 -25 -18 units box
create_atoms 2 random 200 12345 above_graphene overlap 1.5
Created 200 atoms
create_atoms 2 random 200 67890 below_graphene overlap 1.5
Created 200 atoms
group gas type 2
400 atoms in group gas
velocity gas create 700 4928460 mom yes rot yes dist gaussian

compute tgas gas temp

# ----------------------------
# Main Simulation Phase
# ----------------------------

# Switch to full NVT
fix nvt_sim all nvt temp 700 700 50

# Bond analysis
fix reax_bonds all reaxff/bonds 50 bonds.reax

# Output settings
dump mydmp all custom 500 dump.lammpstrj id type x y z q
thermo 50

run 50000
Step          Temp          E_pair         E_mol          TotEng         Press
3013   692.82128     -1200216.3      0             -1185580.4      3923.3201
Averages over the last 501 of 1002 rows, steps 28050 to 53013:
Temp E_pair E_mol TotEng Press
700.418 -1.21707e+06 0 -1.20228e+06 625.375
Loop time of 31723.7 on 1 procs for 50000 steps with 7088 atoms
