LAMMPS (29 Aug 2024 - Update 2)
# ------------------------------
# 1) INITIALIZATION
# ------------------------------
variable T_start equal 10.0       # Starting temperature
variable T_end   equal 773.15     # Annealing target temperature

units real
atom_style charge
boundary p p p

read_data f_diamane_fixed.data
Reading data file ...
  triclinic box = (0 0 0) to (20.177999 17.47466 44.198049) with tilt (10.089 0 0)
  reading atoms ...
  384 atoms

# ------------------------------
# 2) INTERACTION MODEL
# ------------------------------
pair_style reaxff NULL safezone 3.0 mincap 150
pair_coeff * * ffield.reax.FC.txt C F
Reading potential file ffield.reax.FC.txt with DATE: 2013-06-28

# ------------------------------
# 3) GROUPS & CHARGES
# ------------------------------
group carbon type 1
256 atoms in group carbon
group fluorine type 2
128 atoms in group fluorine
group all_atoms union carbon fluorine
384 atoms in group all_atoms

fix qeq all_atoms qeq/reaxff 100 0.0 10.0 1.0e-6 reaxff

# ------------------------------
# 4) PRE-ANNEAL RELAXATION
# ------------------------------
fix boxrelax all_atoms box/relax x 0.0 y 0.0 vmax 0.001
minimize 1.0e-6 1.0e-9 1000 10000

CITE-CITE-CITE-CITE-CITE-CITE-CITE-CITE-CITE-CITE-CITE-CITE-CITE

Your simulation uses code contributions which should be cited:

- pair reaxff command: doi:10.1016/j.parco.2011.08.005

@Article{Aktulga12,
 author = {H. M. Aktulga and J. C. Fogarty and S. A. Pandit and A. Y. Grama},
 title = {Parallel Reactive Molecular Dynamics: {N}umerical Methods and Algorithmic Techniques},
 journal = {Parallel Computing},
 year =    2012,
 volume =  38,
 number =  {4--5},
 pages =   {245--259}
}

- fix qeq/reaxff command: doi:10.1016/j.parco.2011.08.005

@Article{Aktulga12,
 author = {H. M. Aktulga and J. C. Fogarty and S. A. Pandit and A. Y. Grama},
 title = {Parallel Reactive Molecular Dynamics: {N}umerical Methods and Algorithmic Techniques},
 journal = {Parallel Computing},
 year =    2012,
 volume =  38,
 pages =   {245--259}
}

CITE-CITE-CITE-CITE-CITE-CITE-CITE-CITE-CITE-CITE-CITE-CITE-CITE

 (src/min.cpp:219)
Step          Temp          E_pair         E_mol          TotEng         Press          Volume
0   0             -55289.427      0             -55289.427      76555.926      15584.394
Loop time of 3.83271 on 48 procs for 94 steps with 384 atoms

Minimization stats:
  Stopping criterion = energy tolerance
  Energy initial, next-to-last, final =
  Force two-norm initial, final = 38124.975 234.39501
  Force max component initial, final = 26906.994 134.49601
  Final line search alpha, max atom move = 5.7203641e-06 0.00076936615
  Iterations, force evaluations = 94 114

unfix boxrelax

velocity all_atoms create 10 4928459 mom yes rot yes dist gaussian

# ------------------------------
# 5) PHASE 1: Temperature Ramp
# ------------------------------
fix temp_ramp all_atoms nvt temp 10 773.15 50
timestep 0.25
thermo 100
run 10000   # 2.5 ps temperature ramp
Step          Temp          E_pair         E_mol          TotEng         Press
94   10            -57124.73       0             -57113.313     -8866.2755
Averages over the last 51 of 102 rows, steps 5100 to 10094:
Temp E_pair E_mol TotEng Press
584.544 -56523.9 0 -55856.6 14454.9
Loop time of 274.314 on 48 procs for 10000 steps with 384 atoms

unfix temp_ramp

# ------------------------------
# 6) PHASE 2: Hold at T_end
# ------------------------------
fix anneal all_atoms nvt temp 773.15 773.15 50
fix reax_bonds all_atoms reaxff/bonds 100 bonds.reax

dump traj all_atoms custom 500 dump.lammpstrj id type x y z q
run 90000   # 22.5 ps hold at 773.15 K
Step          Temp          E_pair         E_mol          TotEng         Press
10094   793.1113      -56334.998      0             -55429.543      18554.763
Averages over the last 451 of 902 rows, steps 55100 to 100094:
Temp E_pair E_mol TotEng Press
768.75 -56319.7 0 -55442.1 14916.8
Loop time of 2488.95 on 48 procs for 90000 steps with 384 atoms

# Total simulation time = 25 ps
