LAMMPS (29 Aug 2024 - Update 2)
variable T equal 700  # Target temperature

units real
atom_style charge
boundary p p f  # periodic in x and y, fixed in z

# Read graphene structure (carbon only)
read_data graphene.data
Reading data file ...
  orthogonal box = (0.1502 0.13 -42) to (93.48 93.72 42)
  reading atoms ...
  6688 atoms

# ReaxFF potential
pair_style reaxff NULL
pair_coeff * * ffield.reax.txt C F

# Define groups
group graphene type 1
6688 atoms in group graphene
group gas type 2
0 atoms in group gas

# Optional: fluorine regions (comment out if testing graphene alone)
region above_graphene block 1 93 1 93 18 25 units box
region below_graphene block 1 93 1 93 -25 -18 units box
create_atoms 2 random 200 12345 above_graphene
Created 200 atoms
create_atoms 2 random 200 67890 below_graphene
Created 200 atoms

# Set initial charges (ReaxFF requires this)
set type 1 charge 0.0   # Carbon
Setting atom values ...
  6688 settings made for charge
set type 2 charge -0.1  # Fluorine
Setting atom values ...
  400 settings made for charge

# Charge equilibration
fix qeq all qeq/reaxff 100 0.0 10.0 1.0e-6 reaxff

# Prevent atoms from flying out of z bounds
fix wall all wall/reflect zlo EDGE zhi EDGE

# Delete overlapping gas atoms (if any)
variable overlap_cutoff equal 1.3
delete_atoms overlap 1.3 gas gas
System init for delete_atoms ...
Deleted 0 atoms, new total = 7088

# Temperature monitoring
compute tgraphene graphene temp
compute tgas gas temp

# ----------------------------
# Relaxation Phase
# ----------------------------
minimize 1.0e-6 1.0e-9 1000 10000

CITE-CITE-CITE-CITE-CITE-CITE-CITE-CITE-CITE-CITE-CITE-CITE-CITE

Your simulation uses code contributions which should be cited:

- pair reaxff command: doi:10.1016/j.parco.2011.08.005

@Article{Aktulga12,
 author = {H. M. Aktulga and J. C. Fogarty and S. A. Pandit and A. Y. Grama},
 title = {Parallel Reactive Molecular Dynamics: {N}umerical Methods and Algorithmic Techniques},
 journal = {Parallel Computing},
 year =    2012,
 volume =  38,
 number =  {4--5},
 pages =   {245--259}
}

- fix qeq/reaxff command: doi:10.1016/j.parco.2011.08.005

@Article{Aktulga12,
 author = {H. M. Aktulga and J. C. Fogarty and S. A. Pandit and A. Y. Grama},
 title = {Parallel Reactive Molecular Dynamics: {N}umerical Methods and Algorithmic Techniques},
 journal = {Parallel Computing},
 year =    2012,
 volume =  38,
 pages =   {245--259}
}

CITE-CITE-CITE-CITE-CITE-CITE-CITE-CITE-CITE-CITE-CITE-CITE-CITE

Step          Temp          E_pair         E_mol          TotEng         Press
0   0             -1254129.2      0             -1254129.2      138738.83
Loop time of 64.6431 on 48 procs for 68 steps with 7088 atoms

Minimization stats:
  Stopping criterion = energy tolerance
  Energy initial, next-to-last, final =
  Force two-norm initial, final = 6107.8874 1369.2528
  Force max component initial, final = 2771.2942 154.08329
  Final line search alpha, max atom move = 6.3965603e-05 0.0098560303
  Iterations, force evaluations = 68 289

velocity all create 700 4928459 mom yes rot yes dist gaussian

# Soft start: Langevin thermostat + NVE
fix pre_relax all nve
fix temp_relax all langevin 700 700 100.0 123456
timestep 0.25
thermo 100
run 10000
Step          Temp          E_pair         E_mol          TotEng         Press
68   700           -1278759.3      0             -1263971.8      109763.48
Averages over the last 51 of 102 rows, steps 5100 to 10068:
Temp E_pair E_mol TotEng Press
700.883 -1.31473e+06 0 -1.29993e+06 4744
Loop time of 2240.76 on 48 procs for 10000 steps with 7088 atoms

unfix pre_relax
unfix temp_relax

# ----------------------------
# Main Simulation Phase
# ----------------------------
# Return to normal timestep
timestep 0.5

# Switch to full NVT
fix nvt_sim all nvt temp 700 700 50

# Bond analysis
fix reax_bonds all reaxff/bonds 50 bonds.reax

# Output settings
dump mydmp all custom 500 dump.lammpstrj id type x y z q
thermo 50

run 40000
Step          Temp          E_pair         E_mol          TotEng         Press
10068   706.2277      -1314837.1      0             -1299918        3082.2351
Averages over the last 401 of 802 rows, steps 30100 to 50068:
Temp E_pair E_mol TotEng Press
700.286 -1.31683e+06 0 -1.30204e+06 814.489
Loop time of 9021.79 on 48 procs for 40000 steps with 7088 atoms
