LAMMPS (29 Aug 2024 - Update 2)
variable T equal 698  # Starting temperature

units real
atom_style charge
boundary p p f  # periodic in x and y, fixed in z

# Read graphene structure
read_data graphene_good.data
Reading data file ...
  orthogonal box = (0.1502 0.13 -42) to (93.48 93.72 42)
  reading atoms ...
  6688 atoms

# Use ReaxFF
pair_style reaxff NULL
pair_coeff * * ffield.reax.txt C F

# Define groups for graphene and fluorine
group graphene type 1
6688 atoms in group graphene
group gas type 2
0 atoms in group gas

# Define regions for F atoms above and below the graphene sheets
region above_graphene block 1 93 1 93 15 25 units box
region below_graphene block 1 93 1 93 -25 -15 units box

# Create fluorine atoms in the above and below regions
create_atoms 2 random 200 12345 above_graphene
Created 200 atoms
create_atoms 2 random 200 67890 below_graphene
Created 200 atoms
group gas type 2
400 atoms in group gas

# Assign initial charges for ReaxFF
set type 1 charge 0.0   # Carbon
Setting atom values ...
  6688 settings made for charge
set type 2 charge -0.1  # Fluorine
Setting atom values ...
  400 settings made for charge

# Charge equilibration
fix qeq all qeq/reaxff 100 0.0 10.0 1.0e-6 reaxff

# Prevent atoms from leaving box along the z axis
fix wall all wall/reflect zlo EDGE zhi EDGE

# Define compute for temperature (for potential logging if needed)
compute tgraphene graphene temp
compute tgas gas temp

# Minimization and initialization of temperature
minimize 1.0e-6 1.0e-9 1000 10000

CITE-CITE-CITE-CITE-CITE-CITE-CITE-CITE-CITE-CITE-CITE-CITE-CITE

Your simulation uses code contributions which should be cited:

- pair reaxff command: doi:10.1016/j.parco.2011.08.005

@Article{Aktulga12,
 author = {H. M. Aktulga and J. C. Fogarty and S. A. Pandit and A. Y. Grama},
 title = {Parallel Reactive Molecular Dynamics: {N}umerical Methods and Algorithmic Techniques},
 journal = {Parallel Computing},
 year =    2012,
 volume =  38,
 number =  {4--5},
 pages =   {245--259}
}

- fix qeq/reaxff command: doi:10.1016/j.parco.2011.08.005

@Article{Aktulga12,
 author = {H. M. Aktulga and J. C. Fogarty and S. A. Pandit and A. Y. Grama},
 title = {Parallel Reactive Molecular Dynamics: {N}umerical Methods and Algorithmic Techniques},
 journal = {Parallel Computing},
 year =    2012,
 volume =  38,
 pages =   {245--259}
}

CITE-CITE-CITE-CITE-CITE-CITE-CITE-CITE-CITE-CITE-CITE-CITE-CITE

Step          Temp          E_pair         E_mol          TotEng         Press
0   0             -1254585.8      0             -1254585.8      138719.52
Loop time of 91.1 on 48 procs for 87 steps with 7088 atoms

Minimization stats:
  Stopping criterion = energy tolerance
  Energy initial, next-to-last, final =
  Force two-norm initial, final = 5002.0842 645.24559
  Force max component initial, final = 2239.7765 90.690851
  Final line search alpha, max atom move = 0.00013628671 0.012359957
  Iterations, force evaluations = 87 409

velocity all create 698 4928459 mom yes rot yes dist gaussian
velocity all scale 698

# Output simulation data
dump mydmp all custom 500 dump.lammpstrj id type x y z q
thermo 50

# Full-system NVT simulation: apply one thermostat to the entire system
fix nvt_sim all nvt temp 698 698 50

# Monitor bond formation (all bonds)
fix reax_bonds all reaxff/bonds 50 bonds.reax

timestep 0.5
run 40000
Step          Temp          E_pair         E_mol          TotEng         Press
87   698           -1278250.2      0             -1263504.9      109402.84
Averages over the last 401 of 802 rows, steps 20100 to 40087:
Temp E_pair E_mol TotEng Press
697.371 -1.31601e+06 0 -1.30127e+06 1082.56
Loop time of 8937.19 on 48 procs for 40000 steps with 7088 atoms
